Mass Spectrum: Hydrogen
Formula: H2
CAS: 1333-74-0
Molecular weight: 2
Origin: American Petroleum Institute Research Project 44
m/z	intensity
1	21
2	999
2	15
4	999
